LAMMPS (19 Feb 2013)
#--------------------------------------------------------------------------
units			lj
atom_style		atomic
read_data		input.lmp.txt
  orthogonal box = (0 0 0) to (7.7 7.7 7.7)
  256 atoms
#--------------------------------------------------------------------------
#mass           	1  1.0
#group         		Ar type = 1
#--------------------------------------------------------------------------
pair_style		lj/cut 2.5
pair_coeff		* * 1.0 1.0
pair_modify          	shift yes
#pair_modify   	tail no

#--------------------------------------------------------------------------
#LJ Parameters
variable    	kB 		equal 1.3806504e-23 	# [J/K] Boltzmann
variable	sigma_Ar 	equal 3.4e-10 		# m
variable	eps_Ar		equal 1.67e-21		# J
variable	mass_Ar		equal 6.63e-26		# kg
variable	tau_Ar		equal 2.1423e-12	# s
#thermo Parameters
variable    	T_100 		equal 100*(1.3806504000000001236e-23/1.6699999999999999942e-21)
variable   	dt 		equal 0.002
variable	seed		equal 11111

#--------------------------------------------------------------------------
variable 	T_run 		equal 0.82673676646706595328
#--------------------------------------------------------------------------
velocity 		all create 0.82673676646706595328 11111 rot yes dist gaussian
#--------------------------------------------------------------------------
#nve
#--------------------------------------------------------------------------
	fix 			1 all nve
	fix 			2 all temp/rescale 1 0.82673676646706595328 0.82673676646706595328 0.01 1.0
	timestep		0.0020000000000000000416
	thermo_style  		custom step temp press etotal vol
	thermo			100
	run             	1000
Step Temp Press TotEng Volume
0   0.82673677   0.20518899   -2.8200864      456.533
Averages over the last 6 of 11 rows, steps 500 to 1000:
Temp Press TotEng Volume
0.826097 -0.258002 -2.38497 456.533
Loop time of 0.718188 on 1 procs for 1000 steps with 256 atoms

Pair  time (%) = 0.585839 (81.5718)
Neigh time (%) = 0.0587738 (8.18362)
Comm  time (%) = 0.0443578 (6.17635)
Outpt time (%) = 0.000465155 (0.0647678)
Other time (%) = 0.0287526 (4.00349)

	unfix 			1
	unfix 			2
#--------------------------------------------------------------------------
#nve
#--------------------------------------------------------------------------
	fix 			1 all nve
	timestep		0.0020000000000000000416
	thermo_style  		custom step temp press etotal vol
	thermo			100
	run             	5000
Step Temp Press TotEng Volume
1000   0.83172703  -0.16504708   -2.4087626      456.533
Averages over the last 26 of 51 rows, steps 3500 to 6000:
Temp Press TotEng Volume
0.794107 -0.241797 -2.40878 456.533
Loop time of 3.4892 on 1 procs for 5000 steps with 256 atoms

Pair  time (%) = 2.85811 (81.9131)
Neigh time (%) = 0.278322 (7.97666)
Comm  time (%) = 0.231687 (6.64011)
Outpt time (%) = 0.00260711 (0.0747193)
Other time (%) = 0.118472 (3.39539)

	unfix 			1
